code/cases/bench/sm.raw
0,   100.00, 31, 0, 1, 50.00     / PSS(R)E-31.0    TUE, JUN 27 2017  18:52


     1,'1           ',   0.0000,3,   1,   1,   1,1.00000,   0.0000
   101,'2           ',   0.0000,1,   1,   1,   1,1.00000,   0.0000
0 / END OF BUS DATA, BEGIN LOAD DATA
   101,'1 ',1,   1,   1,   100.000,    30.000,     0.000,     0.000,     0.000,     0.000,   1
0 / END OF LOAD DATA, BEGIN FIXED SHUNT DATA
0 / END OF FIXED SHUNT DATA, BEGIN GENERATOR DATA
     1,'1 ',   100.000,    30.000,    30.000,    30.000,1.00000,     0,   100.000, 1.00000E-2, 1.00000E-1, 0.00000E+0, 0.00000E+0,1.00000,1,  100.0,   100.000,   100.000,   1,1.0000
0 / END OF GENERATOR DATA, BEGIN BRANCH DATA
     1,   101,'1 ', 0.00000E+0, 1.00000E-4,   0.00000,    0.00,    0.00,    0.00,  0.00000,  0.00000,  0.00000,  0.00000,1,1,   0.00,   1,1.0000
0 / END OF BRANCH DATA, BEGIN TRANSFORMER DATA
0 / END OF TRANSFORMER DATA, BEGIN AREA DATA
0 / END OF AREA DATA, BEGIN TWO-TERMINAL DC DATA
0 / END OF TWO-TERMINAL DC DATA, BEGIN VSC DC LINE DATA
0 / END OF VSC DC LINE DATA, BEGIN IMPEDANCE CORRECTION DATA
0 / END OF IMPEDANCE CORRECTION DATA, BEGIN MULTI-TERMINAL DC DATA
0 / END OF MULTI-TERMINAL DC DATA, BEGIN MULTI-SECTION LINE DATA
0 / END OF MULTI-SECTION LINE DATA, BEGIN ZONE DATA
0 / END OF ZONE DATA, BEGIN INTER-AREA TRANSFER DATA
0 / END OF INTER-AREA TRANSFER DATA, BEGIN OWNER DATA
0 / END OF OWNER DATA, BEGIN FACTS DEVICE DATA
0 / END OF FACTS DEVICE DATA, BEGIN SWITCHED SHUNT DATA
0 / END OF SWITCHED SHUNT DATA
